/*--------------------------------*- C++ -*----------------------------------*\
| =========                 |                                                 |
| \\      /  F ield         | OpenFOAM: The Open Source CFD Toolbox           |
|  \\    /   O peration     | Version:  2412                                  |
|   \\  /    A nd           | Website:  www.openfoam.com                      |
|    \\/     M anipulation  |                                                 |
\*---------------------------------------------------------------------------*/
FoamFile
{
    version     2.0;
    format      ascii;
    arch        "LSB;label=32;scalar=64";
    class       extendedFeatureEdgeMesh;
    location    "constant/extendedFeatureEdgeMesh";
    object      mug_lid.extendedFeatureEdgeMesh;
}
// * * * * * * * * * * * * * * * * * * * * * * * * * * * * * * * * * * * * * //

// points
8((0.009 0.0071 0) (0.005 0.0071 0) (0.009 0.0071 0.0001) (0.005 0.0071 0.0001) (0.005 0.007 0) (0.009 0.007 0) (0.005 0.007 0.0001) (0.009 0.007 0.0001))
// edges

12
(
(5 4)
(0 5)
(1 0)
(4 1)
(6 7)
(7 2)
(2 3)
(3 6)
(2 0)
(1 3)
(7 5)
(4 6)
)

// concaveStart mixedStart nonFeatureStart
4 4 8
// internalStart flatStart openStart multipleStart
10 12 12 12
// normals

12
(
(0 0 -1)
(0 1 0)
(-1 0 0)
(0 0 -1)
(0 1 0)
(-1 0 0)
(0 0 1)
(0 1 0)
(-1 0 0)
(0 0 1)
(0 1 0)
(-1 0 0)
)

// normal volume types

12
(
0
0
0
0
0
0
0
0
0
0
0
0
)

// normalDirections

12
(
2{1}
2{1}
2(1 -1)
2(1 -1)
2{1}
2{1}
2(1 -1)
2(1 -1)
2{1}
2(1 -1)
2(1 -1)
2{1}
)

// edgeNormals

12
(
2(0 1)
2(0 2)
2(3 4)
2(3 5)
2(6 7)
2(6 8)
2(9 10)
2(9 11)
2(4 2)
2(10 5)
2(1 8)
2(7 11)
)

// featurePointNormals

8
(
3(0 2 4)
3(3 4 5)
3(6 8 10)
3(9 10 11)
3(0 1 5)
3(0 1 2)
3(6 7 11)
3(6 7 8)
)

// featurePointEdges

8
(
3(2 8 1)
3(2 9 3)
3(6 8 5)
3(6 9 7)
3(3 11 0)
3(0 10 1)
3(7 11 4)
3(4 10 5)
)

// regionEdges
0()


// ************************************************************************* //
