/*--------------------------------*- C++ -*----------------------------------*\
| =========                 |                                                 |
| \\      /  F ield         | OpenFOAM: The Open Source CFD Toolbox           |
|  \\    /   O peration     | Version:  2412                                  |
|   \\  /    A nd           | Website:  www.openfoam.com                      |
|    \\/     M anipulation  |                                                 |
\*---------------------------------------------------------------------------*/
FoamFile
{
    version     2.0;
    format      ascii;
    arch        "LSB;label=32;scalar=64";
    class       extendedFeatureEdgeMesh;
    location    "constant/extendedFeatureEdgeMesh";
    object      mug_body.extendedFeatureEdgeMesh;
}
// * * * * * * * * * * * * * * * * * * * * * * * * * * * * * * * * * * * * * //

// points

54
(
(0.005 0.007 0)
(0.009 0.007 0)
(0.009 0.001 0)
(0.005 0.001 0)
(0.009 0.007 0.0001)
(0.005 0.007 0.0001)
(0.005 0.001 0.0001)
(0.009 0.001 0.0001)
(0.009 0.00656174 0)
(0.009 0.00143826 0)
(0.009 0.00656174 0.0001)
(0.009 0.00143826 0.0001)
(0.0104929 0.00283897 0)
(0.0103518 0.00257475 0)
(0.00953022 0.00628493 0)
(0.00976964 0.00610497 0)
(0.00927266 0.00643779 0)
(0.0101829 0.00232744 0)
(0.00998806 0.00209997 0)
(0.00976964 0.00189503 0)
(0.0101829 0.00567256 0)
(0.0103518 0.00542525 0)
(0.0104929 0.00516103 0)
(0.00953022 0.00171507 0)
(0.00927266 0.00156221 0)
(0.0106044 0.00311695 0)
(0.00998806 0.00590003 0)
(0.01075 0.004 0)
(0.0107337 0.00370094 0)
(0.0107337 0.00429906 0)
(0.010685 0.00459458 0)
(0.0106044 0.00488305 0)
(0.010685 0.00340542 0)
(0.00927266 0.00156221 0.0001)
(0.00953022 0.00171507 0.0001)
(0.00976964 0.00189503 0.0001)
(0.00998806 0.00209997 0.0001)
(0.00976964 0.00610497 0.0001)
(0.00953022 0.00628493 0.0001)
(0.0103518 0.00257475 0.0001)
(0.0104929 0.00283897 0.0001)
(0.0106044 0.00311695 0.0001)
(0.0101829 0.00232744 0.0001)
(0.00927266 0.00643779 0.0001)
(0.010685 0.00340542 0.0001)
(0.0107337 0.00370094 0.0001)
(0.01075 0.004 0.0001)
(0.0107337 0.00429906 0.0001)
(0.010685 0.00459458 0.0001)
(0.0106044 0.00488305 0.0001)
(0.0104929 0.00516103 0.0001)
(0.0103518 0.00542525 0.0001)
(0.00998806 0.00590003 0.0001)
(0.0101829 0.00567256 0.0001)
)

// edges

60
(
(1 8)
(0 1)
(2 3)
(9 2)
(3 0)
(12 13)
(14 15)
(8 16)
(16 14)
(13 17)
(17 18)
(18 19)
(20 21)
(21 22)
(19 23)
(23 24)
(24 9)
(25 12)
(15 26)
(26 20)
(27 28)
(29 27)
(30 29)
(22 31)
(31 30)
(32 25)
(28 32)
(10 4)
(4 5)
(5 6)
(11 33)
(6 7)
(7 11)
(33 34)
(34 35)
(35 36)
(37 38)
(39 40)
(40 41)
(36 42)
(42 39)
(43 10)
(38 43)
(41 44)
(44 45)
(45 46)
(46 47)
(47 48)
(48 49)
(49 50)
(50 51)
(52 37)
(51 53)
(53 52)
(2 7)
(6 3)
(1 4)
(0 5)
(11 9)
(8 10)
)

// concaveStart mixedStart nonFeatureStart
8 8 12
// internalStart flatStart openStart multipleStart
58 60 60 60
// normals

102
(
(0 0 -1)
(1 0 0)
(0 1 0)
(0 0 -1)
(0 -1 0)
(1 0 0)
(0 0 -1)
(-1 0 -0)
(-0 0 -1)
(0.8821 -0.471063 0)
(-0 -0 -1)
(0.600844 0.799366 -0)
(0 0 -1)
(0.413839 0.91035 -0)
(0 0 -1)
(0.510376 0.859951 -0)
(-0 0 -1)
(0.825793 -0.563974 0)
(-0 0 -1)
(0.759478 -0.650533 0)
(0 0 -1)
(0.684245 -0.729253 0)
(0 0 -1)
(0.825793 0.563974 -0)
(0 0 -1)
(0.8821 0.471063 -0)
(-0 0 -1)
(0.600844 -0.799366 0)
(-0 0 -1)
(0.510375 -0.859952 0)
(0 0 -1)
(0.41384 -0.91035 0)
(0 0 -1)
(0.928122 -0.372276 0)
(0 0 -1)
(0.684245 0.729253 -0)
(0 0 -1)
(0.759478 0.650533 -0)
(-0 0 -1)
(0.998518 -0.0544233 0)
(0.998518 0.0544234 -0)
(0 0 -1)
(0.986691 0.162604 -0)
(0 0 -1)
(0.928122 0.372276 -0)
(0 0 -1)
(0.963113 0.269097 -0)
(0 0 -1)
(0.963113 -0.269097 0)
(0 0 -1)
(0.986691 -0.162604 0)
(0 0 1)
(1 0 0)
(-0 1 0)
(0 0 1)
(-1 0 0)
(0 0 1)
(0.41384 -0.91035 0)
(0 0 1)
(-0 -1 -0)
(1 0 0)
(0 -0 1)
(0.510375 -0.859952 0)
(0 -0 1)
(0.600844 -0.799366 0)
(0 0 1)
(0.684245 -0.729253 0)
(0 0 1)
(0.600844 0.799366 0)
(0 -0 1)
(0.8821 -0.471063 0)
(0 0 1)
(0.928122 -0.372276 0)
(0 -0 1)
(0.759478 -0.650533 0)
(0 -0 1)
(0.825793 -0.563974 0)
(0 0 1)
(0.413839 0.91035 0)
(0 0 1)
(0.510376 0.859951 0)
(0 -0 1)
(0.963113 -0.269097 0)
(0 -0 1)
(0.986691 -0.162604 0)
(0 0 1)
(0.998518 -0.0544233 0)
(0 0 1)
(0.998518 0.0544234 0)
(0 0 1)
(0.986691 0.162604 0)
(0 0 1)
(0.963113 0.269097 0)
(0 0 1)
(0.928122 0.372276 0)
(0 0 1)
(0.8821 0.471063 0)
(0 0 1)
(0.684245 0.729253 0)
(0 0 1)
(0.825793 0.563974 0)
(0.759478 0.650533 0)
)

// normal volume types

102
(
0
0
0
0
0
0
0
0
0
0
0
0
0
0
0
0
0
0
0
0
0
0
0
0
0
0
0
0
0
0
0
0
0
0
0
0
0
0
0
0
0
0
0
0
0
0
0
0
0
0
0
0
0
0
0
0
0
0
0
0
0
0
0
0
0
0
0
0
0
0
0
0
0
0
0
0
0
0
0
0
0
0
0
0
0
0
0
0
0
0
0
0
0
0
0
0
0
0
0
0
0
0
)

// normalDirections

60
(
2(1 -1)
2(1 -1)
2(1 -1)
2(1 -1)
2(1 -1)
2(1 -1)
2(1 -1)
2(1 -1)
2(1 -1)
2(1 -1)
2(1 -1)
2(1 -1)
2(1 -1)
2(1 -1)
2(1 -1)
2(1 -1)
2(1 -1)
2(1 -1)
2(1 -1)
2(1 -1)
2(1 -1)
2(1 -1)
2(1 -1)
2(1 -1)
2(1 -1)
2(1 -1)
2(1 -1)
2(1 -1)
2(1 -1)
2(1 -1)
2(1 -1)
2(1 -1)
2(1 -1)
2(1 -1)
2(1 -1)
2(1 -1)
2(1 -1)
2(1 -1)
2(1 -1)
2(1 -1)
2(1 -1)
2(1 -1)
2(1 -1)
2(1 -1)
2(1 -1)
2(1 -1)
2(1 -1)
2(1 -1)
2(1 -1)
2(1 -1)
2(1 -1)
2(1 -1)
2(1 -1)
2(1 -1)
2(1 -1)
2(1 -1)
2(1 -1)
2(1 -1)
2(1 -1)
2(1 -1)
)

// edgeNormals

60
(
2(0 1)
2(0 2)
2(3 4)
2(3 5)
2(6 7)
2(8 9)
2(10 11)
2(12 13)
2(14 15)
2(16 17)
2(18 19)
2(20 21)
2(22 23)
2(24 25)
2(26 27)
2(28 29)
2(30 31)
2(32 33)
2(34 35)
2(36 37)
2(38 39)
2(38 40)
2(41 42)
2(43 44)
2(45 46)
2(47 48)
2(49 50)
2(51 52)
2(51 53)
2(54 55)
2(56 57)
2(58 59)
2(58 60)
2(61 62)
2(63 64)
2(65 66)
2(67 68)
2(69 70)
2(71 72)
2(73 74)
2(75 76)
2(77 78)
2(79 80)
2(81 82)
2(83 84)
2(85 86)
2(87 88)
2(89 90)
2(91 92)
2(93 94)
2(95 96)
2(97 98)
2(99 100)
2(99 101)
2(59 5)
2(4 55)
2(52 2)
2(53 7)
2(31 60)
2(78 1)
)

// featurePointNormals

12
(
3(0 2 7)
3(0 1 2)
3(3 4 5)
3(3 4 7)
3(51 52 53)
3(51 53 55)
3(54 55 59)
3(58 59 60)
3(0 1 13)
3(3 5 31)
3(51 52 78)
3(56 57 60)
)

// featurePointEdges

12
(
3(4 57 1)
3(0 56 1)
3(2 54 3)
3(4 55 2)
3(27 56 28)
3(29 57 28)
3(31 55 29)
3(31 54 32)
3(7 59 0)
3(16 58 3)
3(41 59 27)
3(32 58 30)
)

// regionEdges
0()


// ************************************************************************* //
