/*--------------------------------*- C++ -*----------------------------------*\
| =========                 |                                                 |
| \\      /  F ield         | OpenFOAM: The Open Source CFD Toolbox           |
|  \\    /   O peration     | Version:  2412                                  |
|   \\  /    A nd           | Website:  www.openfoam.com                      |
|    \\/     M anipulation  |                                                 |
\*---------------------------------------------------------------------------*/
FoamFile
{
    version     2.0;
    format      ascii;
    arch        "LSB;label=32;scalar=64";
    class       featureEdgeMesh;
    location    "constant/triSurface";
    object      mug_body.eMesh;
}
// * * * * * * * * * * * * * * * * * * * * * * * * * * * * * * * * * * * * * //


// points:

54
(
(0.005 0.007 0)
(0.009 0.007 0)
(0.009 0.001 0)
(0.005 0.001 0)
(0.009 0.007 0.0001)
(0.005 0.007 0.0001)
(0.005 0.001 0.0001)
(0.009 0.001 0.0001)
(0.009 0.00656174 0)
(0.009 0.00143826 0)
(0.009 0.00656174 0.0001)
(0.009 0.00143826 0.0001)
(0.0104929 0.00283897 0)
(0.0103518 0.00257475 0)
(0.00953022 0.00628493 0)
(0.00976964 0.00610497 0)
(0.00927266 0.00643779 0)
(0.0101829 0.00232744 0)
(0.00998806 0.00209997 0)
(0.00976964 0.00189503 0)
(0.0101829 0.00567256 0)
(0.0103518 0.00542525 0)
(0.0104929 0.00516103 0)
(0.00953022 0.00171507 0)
(0.00927266 0.00156221 0)
(0.0106044 0.00311695 0)
(0.00998806 0.00590003 0)
(0.01075 0.004 0)
(0.0107337 0.00370094 0)
(0.0107337 0.00429906 0)
(0.010685 0.00459458 0)
(0.0106044 0.00488305 0)
(0.010685 0.00340542 0)
(0.00927266 0.00156221 0.0001)
(0.00953022 0.00171507 0.0001)
(0.00976964 0.00189503 0.0001)
(0.00998806 0.00209997 0.0001)
(0.00976964 0.00610497 0.0001)
(0.00953022 0.00628493 0.0001)
(0.0103518 0.00257475 0.0001)
(0.0104929 0.00283897 0.0001)
(0.0106044 0.00311695 0.0001)
(0.0101829 0.00232744 0.0001)
(0.00927266 0.00643779 0.0001)
(0.010685 0.00340542 0.0001)
(0.0107337 0.00370094 0.0001)
(0.01075 0.004 0.0001)
(0.0107337 0.00429906 0.0001)
(0.010685 0.00459458 0.0001)
(0.0106044 0.00488305 0.0001)
(0.0104929 0.00516103 0.0001)
(0.0103518 0.00542525 0.0001)
(0.00998806 0.00590003 0.0001)
(0.0101829 0.00567256 0.0001)
)


// edges:

60
(
(1 8)
(0 1)
(2 3)
(9 2)
(3 0)
(12 13)
(14 15)
(8 16)
(16 14)
(13 17)
(17 18)
(18 19)
(20 21)
(21 22)
(19 23)
(23 24)
(24 9)
(25 12)
(15 26)
(26 20)
(27 28)
(29 27)
(30 29)
(22 31)
(31 30)
(32 25)
(28 32)
(10 4)
(4 5)
(5 6)
(11 33)
(6 7)
(7 11)
(33 34)
(34 35)
(35 36)
(37 38)
(39 40)
(40 41)
(36 42)
(42 39)
(43 10)
(38 43)
(41 44)
(44 45)
(45 46)
(46 47)
(47 48)
(48 49)
(49 50)
(50 51)
(52 37)
(51 53)
(53 52)
(2 7)
(6 3)
(1 4)
(0 5)
(11 9)
(8 10)
)

// * * * * * * * * * * * * * * * * * * * * * * * * * * * * * * * * * * * * * //


// ************************************************************************* //
